Version 4
SHEET 1 1904 1580
WIRE -544 -192 -576 -192
WIRE -96 -192 -544 -192
WIRE -96 -144 -96 -192
WIRE -192 -64 -224 -64
WIRE -144 -64 -192 -64
WIRE -576 16 -576 -192
WIRE -192 80 -224 80
WIRE -96 80 -96 -48
WIRE -96 80 -192 80
WIRE -16 80 -96 80
WIRE 176 80 16 80
WIRE 304 80 256 80
WIRE 448 80 384 80
WIRE 544 80 448 80
WIRE 576 80 544 80
WIRE 448 144 448 80
WIRE 0 176 0 96
WIRE 48 176 0 176
WIRE 176 176 48 176
WIRE 576 176 576 80
WIRE -96 192 -96 80
WIRE 448 240 448 208
WIRE -576 368 -576 96
WIRE -96 368 -96 256
WIRE -96 368 -576 368
WIRE 448 368 448 320
WIRE 448 368 -96 368
WIRE 576 368 576 256
WIRE 576 368 448 368
WIRE -576 416 -576 368
WIRE -176 528 -208 528
WIRE -96 528 -176 528
WIRE 192 528 112 528
WIRE 256 528 192 528
WIRE -192 560 -256 560
WIRE -96 560 -192 560
WIRE 192 560 112 560
WIRE 256 560 192 560
WIRE -96 592 -128 592
WIRE 192 592 112 592
WIRE 256 592 192 592
WIRE -128 624 -128 592
WIRE -96 624 -128 624
WIRE 192 624 112 624
WIRE 256 624 192 624
FLAG -576 416 0
FLAG 544 80 out
FLAG -544 -192 in
FLAG 48 176 isense
FLAG -176 528 isense
FLAG -192 -64 gate
FLAG -192 80 source
FLAG 192 592 gate
FLAG 192 624 source
FLAG 192 560 clk
FLAG 192 528 isensea
FLAG -192 560 ip_ref
SYMBOL ind 288 96 R270
WINDOW 0 32 56 VTop 2
WINDOW 3 5 56 VBottom 2
SYMATTR InstName L1
SYMATTR Value 100µ
SYMBOL cap 432 144 R0
SYMATTR InstName C1
SYMATTR Value 10µ
SYMBOL res 560 160 R0
SYMATTR InstName R1
SYMATTR Value 5
SYMBOL voltage -576 0 R0
SYMATTR InstName V1
SYMATTR Value 10
SYMBOL res 272 64 R90
WINDOW 0 0 56 VBottom 2
WINDOW 3 32 56 VTop 2
SYMATTR InstName R2
SYMATTR Value 50m
SYMBOL res 432 224 R0
SYMATTR InstName R3
SYMATTR Value 200m
SYMBOL Control\\isense 0 80 R0
WINDOW 0 0 -28 Bottom 2
SYMATTR InstName U4
SYMBOL nmos -144 -144 R0
SYMATTR InstName M1
SYMATTR Value IRF530
SYMBOL Control\\idiode -80 256 R180
WINDOW 3 24 -28 Left 2
WINDOW 123 24 -56 Left 2
SYMATTR InstName U1
SYMBOL Control\\constant -288 560 R0
WINDOW 3 -8 62 Bottom 2
SYMATTR Value K=1.5
SYMATTR InstName U11
SYMBOL MyCMC -16 624 R0
WINDOW 3 -75 39 Left 2
WINDOW 123 -76 65 Left 2
WINDOW 39 -77 95 Left 2
SYMATTR InstName U2
TEXT 72 -56 Left 2 !.tran 0 800u 0 0.1u uic
TEXT 80 -96 Left 2 !.options reltol=10m
TEXT -120 448 Left 2 ;Current-Mode Controller
