Version 4
SHEET 1 1904 1580
WIRE -544 -192 -576 -192
WIRE -96 -192 -544 -192
WIRE -96 -144 -96 -192
WIRE -192 -64 -224 -64
WIRE -144 -64 -192 -64
WIRE -576 16 -576 -192
WIRE -192 80 -224 80
WIRE -96 80 -96 -48
WIRE -96 80 -192 80
WIRE -16 80 -96 80
WIRE 176 80 16 80
WIRE 304 80 256 80
WIRE 448 80 384 80
WIRE 544 80 448 80
WIRE 576 80 544 80
WIRE 736 80 576 80
WIRE 448 144 448 80
WIRE 0 176 0 96
WIRE 48 176 0 176
WIRE 176 176 48 176
WIRE 576 176 576 80
WIRE -96 192 -96 80
WIRE 448 240 448 208
WIRE -576 368 -576 96
WIRE -96 368 -96 256
WIRE -96 368 -576 368
WIRE 448 368 448 320
WIRE 448 368 -96 368
WIRE 576 368 576 256
WIRE 576 368 448 368
WIRE -576 416 -576 368
WIRE 48 512 -16 512
WIRE 96 512 48 512
WIRE 400 512 304 512
WIRE 432 512 400 512
WIRE -256 544 -352 544
WIRE 96 544 -256 544
WIRE 400 544 304 544
WIRE 432 544 400 544
WIRE 96 576 -224 576
WIRE 400 576 304 576
WIRE 432 576 400 576
WIRE 96 608 48 608
WIRE 400 608 304 608
WIRE 432 608 400 608
WIRE -416 704 -496 704
WIRE -224 704 -224 576
WIRE -224 704 -336 704
WIRE -224 768 -224 704
WIRE -176 768 -224 768
WIRE -64 768 -96 768
WIRE 48 768 48 608
WIRE 48 768 0 768
WIRE -496 880 -496 704
WIRE 736 880 736 80
WIRE 736 880 -496 880
FLAG -576 416 0
FLAG 544 80 out
FLAG -544 -192 in
FLAG 48 176 isense
FLAG -256 544 vref
FLAG 400 576 gate
FLAG 400 608 source
FLAG -192 -64 gate
FLAG -192 80 source
FLAG 48 512 isense
FLAG 400 512 isensa
FLAG 400 544 clk
SYMBOL ind 288 96 R270
WINDOW 0 32 56 VTop 2
WINDOW 3 5 56 VBottom 2
SYMATTR InstName L1
SYMATTR Value 100µ
SYMBOL cap 432 144 R0
SYMATTR InstName C1
SYMATTR Value 10µ
SYMBOL res 560 160 R0
SYMATTR InstName R1
SYMATTR Value 5
SYMBOL voltage -576 0 R0
SYMATTR InstName V1
SYMATTR Value 10
SYMBOL res 272 64 R90
WINDOW 0 0 56 VBottom 2
WINDOW 3 32 56 VTop 2
SYMATTR InstName R2
SYMATTR Value 50m
SYMBOL res 432 224 R0
SYMATTR InstName R3
SYMATTR Value 200m
SYMBOL Control\\isense 0 80 R0
WINDOW 0 0 -28 Bottom 2
SYMATTR InstName U4
SYMBOL nmos -144 -144 R0
SYMATTR InstName M1
SYMATTR Value IRF530
SYMBOL Control\\idiode -80 256 R180
WINDOW 3 24 -28 Left 2
WINDOW 123 24 -56 Left 2
SYMATTR InstName U1
SYMBOL Control\\constant -384 544 R0
WINDOW 3 -8 62 Bottom 2
SYMATTR Value K=6.5
SYMATTR InstName U11
SYMBOL MyCMC 176 608 R0
WINDOW 3 -79 36 Left 2
WINDOW 123 -77 60 Left 2
WINDOW 39 -79 86 Left 2
SYMATTR InstName U2
SYMBOL res -320 688 R90
WINDOW 0 0 56 VBottom 2
WINDOW 3 32 56 VTop 2
SYMATTR InstName R4
SYMATTR Value 16k
SYMBOL res -80 752 R90
WINDOW 0 0 56 VBottom 2
WINDOW 3 32 56 VTop 2
SYMATTR InstName R5
SYMATTR Value 16k
SYMBOL cap 0 752 R90
WINDOW 0 0 32 VBottom 2
WINDOW 3 32 32 VTop 2
SYMATTR InstName C2
SYMATTR Value 10n
TEXT 72 -56 Left 2 !.tran 0 1m 0 0.1u uic
TEXT 80 -96 Left 2 !.options reltol=12m
TEXT 72 424 Left 2 ;Current-Mode Controller
